
**** 10/16/19 08:32:20 ****** PSpice 17.2.0 (March 2016) ****** ID# 0 ********

 ** Profile: "SCHEMATIC1-PROJECT_1"  [ H:\00_Fall_2019\JEDL\Project2\jedl_project_2-pspicefiles\schematic1\project_1.sim ] 


 ****     CIRCUIT DESCRIPTION


******************************************************************************




** Creating circuit file "PROJECT_1.cir" 
** WARNING: THIS AUTOMATICALLY GENERATED FILE MAY BE OVERWRITTEN BY SUBSEQUENT SIMULATIONS

*Libraries: 
* Profile Libraries :
* Local Libraries :
* From [PSPICE NETLIST] section of C:\Users\o167m805\cdssetup\OrCAD_PSpice\17.2.0\PSpice.ini file:
.lib "nom.lib" 

*Analysis directives: 
.TRAN  0 10 0 SKIPBP 
.OPTIONS ADVCONV
.PROBE64 V(alias(*)) I(alias(*)) W(alias(*)) D(alias(*)) NOISE(alias(*)) 
.INC "..\SCHEMATIC1.net" 



**** INCLUDING SCHEMATIC1.net ****
* source JEDL_PROJECT_2
X_U1         0 0 N00863 N00646 N00754 0 0 N01035 N00220 N00220 N00852 LM723
V_V1         N00220 0 8Vdc
C_C1         0 N00220  1n  TC=0,0 
C_C4         0 N00220  0.1u  TC=0,0 
C_C5         N00646 N00220  0.047u  TC=0,0 
R_R1         N00646 N00754  1k TC=0,0 
R_R2         0 N00646  1k TC=0,0 
C_C6         N00863 N00852  470p  TC=0,0 
R_R3         N00863 N00852  1k TC=0,0 
R_R4         N00852 N02077  1k TC=0,0 
R_R5         0 N00852  1k TC=0,0 
L_L1         N00220 N01484  100uH  
Q_IRF510         N01484 N01886 0 QbreakP 
R_R7         0 N01035  470 TC=0,0 
R_ARD_Error_Voltage         0 N01035  1k TC=0,0 
V_V2         N01886 0  
+PULSE 8 0 0 1E-9 1E-9 1 2
D_1N5817         N01484 N02077 Dbreak 
C_C3         0 N02077  2200u  TC=0,0 
C_C2         0 N02077  0.1u  TC=0,0 
R_LOAD         0 N02077  1K TC=0,0 
D_1N5818         N01484 N02077 Dbreak 
D_1N5819         N01484 N02077 Dbreak 
D_D1         N11104 N01484 Dbreak 

**** RESUMING PROJECT_1.cir ****
.END

ERROR(ORPSIM-15141): Less than 2 connections at node N11104.
